LAMMPS (17 Nov 2015)
# 3d Lennard-Jones gas
units lj
dimension 3
boundary p p p
atom_style atomic

lattice fcc 0.050000
Lattice spacing in x,y,z = 4.30887 4.30887 4.30887
region simbox block 0 10 0 10 0 10
create_box 1 simbox
Created orthogonal box = (0 0 0) to (43.0887 43.0887 43.0887)
create_atoms 1 box
Created 4000 atoms

mass 1 1.0
velocity all create 10.000000 87287

pair_style lj/cut 3.0
pair_coeff 1 1 1.0 1.0 3.0

fix 1 all nve

dump 1 all custom 10 dump.lammpstrj id type x y z vx vy vz
thermo_style custom step temp density press
thermo 100
run 5000
  1 neighbor list requests
  update every 1 steps, delay 10 steps, check yes
Step Temp Density Press
0           10         0.05     0.499875
Averages over the last 26 of 51 rows, steps 2500 to 5000:
Temp Density Press
10.0934 0.05 0.532008
Loop time of 5.87297 on 1 procs for 5000 steps with 4000 atoms
