LAMMPS (17 Nov 2015)
# 3d Lennard-Jones gas
units lj
dimension 3
boundary p p p
atom_style atomic

lattice fcc 0.500000
Lattice spacing in x,y,z = 2 2 2
region simbox block 0 10 0 10 0 10
create_box 1 simbox
Created orthogonal box = (0 0 0) to (20 20 20)
create_atoms 1 box
Created 4000 atoms

mass 1 1.0
velocity all create 10.000000 87287

pair_style lj/cut 3.0
pair_coeff 1 1 1.0 1.0 3.0

fix 1 all nve

dump 1 all custom 10 dump.lammpstrj id type x y z vx vy vz
thermo_style custom step temp density press
thermo 100
run 5000
  1 neighbor list requests
  update every 1 steps, delay 10 steps, check yes
Step Temp Density Press
0           10          0.5    2.3002529
Averages over the last 26 of 51 rows, steps 2500 to 5000:
Temp Density Press
8.81026 0.5 8.87159
Loop time of 16.5227 on 1 procs for 5000 steps with 4000 atoms
